Version 4
SHEET 1 2636 704
WIRE 608 384 608 352
WIRE 640 384 640 352
WIRE 672 384 672 352
WIRE 704 384 704 352
WIRE 736 384 736 352
WIRE 768 384 768 352
WIRE 800 384 800 352
WIRE 832 384 832 352
WIRE 912 384 912 352
WIRE 944 384 944 352
WIRE 976 384 976 352
WIRE 1008 384 1008 352
WIRE 1040 384 1040 352
WIRE 1072 384 1072 352
WIRE 1104 384 1104 352
WIRE 1136 384 1136 352
WIRE 1216 384 1216 352
WIRE 1248 384 1248 352
WIRE 1280 384 1280 352
WIRE 1312 384 1312 352
WIRE 1344 384 1344 352
WIRE 1376 384 1376 352
WIRE 1408 384 1408 352
WIRE 1440 384 1440 352
WIRE 1520 384 1520 352
WIRE 1552 384 1552 352
WIRE 1584 384 1584 352
WIRE 1616 384 1616 352
WIRE 1648 384 1648 352
WIRE 1680 384 1680 352
WIRE 1712 384 1712 352
WIRE 1744 384 1744 352
WIRE 720 560 720 528
WIRE 1024 560 1024 528
WIRE 1328 560 1328 528
WIRE 1632 560 1632 528
FLAG 704 352 ALUSel1
IOPIN 704 352 In
FLAG 672 352 ALUSel2
IOPIN 672 352 In
FLAG 640 352 VDD
IOPIN 640 352 In
FLAG 608 352 VEE
IOPIN 608 352 In
FLAG 720 560 Output4
IOPIN 720 560 Out
FLAG 1008 352 ALUSel1
IOPIN 1008 352 In
FLAG 976 352 ALUSel2
IOPIN 976 352 In
FLAG 944 352 VDD
IOPIN 944 352 In
FLAG 912 352 VEE
IOPIN 912 352 In
FLAG 1024 560 Output3
IOPIN 1024 560 Out
FLAG 1312 352 ALUSel1
IOPIN 1312 352 In
FLAG 1280 352 ALUSel2
IOPIN 1280 352 In
FLAG 1248 352 VDD
IOPIN 1248 352 In
FLAG 1216 352 VEE
IOPIN 1216 352 In
FLAG 1328 560 Output2
IOPIN 1328 560 Out
FLAG 1616 352 ALUSel1
IOPIN 1616 352 In
FLAG 1584 352 ALUSel2
IOPIN 1584 352 In
FLAG 1552 352 VDD
IOPIN 1552 352 In
FLAG 1520 352 VEE
IOPIN 1520 352 In
FLAG 1632 560 Output1
IOPIN 1632 560 Out
FLAG 736 352 ALU4Out4
IOPIN 736 352 In
FLAG 768 352 ALU3Out4
IOPIN 768 352 In
FLAG 800 352 ALU2Out4
IOPIN 800 352 In
FLAG 832 352 ALU1Out4
IOPIN 832 352 In
FLAG 1040 352 ALU4Out3
IOPIN 1040 352 In
FLAG 1072 352 ALU3Out3
IOPIN 1072 352 In
FLAG 1104 352 ALU2Out3
IOPIN 1104 352 In
FLAG 1136 352 ALU1Out3
IOPIN 1136 352 In
FLAG 1344 352 ALU4Out2
IOPIN 1344 352 In
FLAG 1376 352 ALU3Out2
IOPIN 1376 352 In
FLAG 1408 352 ALU2Out2
IOPIN 1408 352 In
FLAG 1440 352 ALU1Out2
IOPIN 1440 352 In
FLAG 1648 352 ALU4Out1
IOPIN 1648 352 In
FLAG 1680 352 ALU3Out1
IOPIN 1680 352 In
FLAG 1712 352 ALU2Out1
IOPIN 1712 352 In
FLAG 1744 352 ALU1Out1
IOPIN 1744 352 In
SYMBOL 4_to_1_Multiplexer_Symbol 720 448 R90
SYMATTR InstName Mux1
SYMBOL 4_to_1_Multiplexer_Symbol 1024 448 R90
SYMATTR InstName Mux2
SYMBOL 4_to_1_Multiplexer_Symbol 1328 448 R90
SYMATTR InstName Mux3
SYMBOL 4_to_1_Multiplexer_Symbol 1632 448 R90
SYMATTR InstName Mux4
