Version 4
SHEET 1 988 680
WIRE 16 128 16 112
WIRE 16 224 16 208
WIRE 592 272 560 272
WIRE 592 304 560 304
WIRE 16 320 16 304
WIRE 832 320 800 320
WIRE 592 336 560 336
WIRE 592 368 560 368
WIRE 16 416 16 400
WIRE 16 512 16 496
WIRE 16 608 16 592
FLAG 16 608 0
FLAG 16 416 0
FLAG 16 224 0
FLAG 16 112 VDD
IOPIN 16 112 In
FLAG 16 304 A
IOPIN 16 304 In
FLAG 16 496 B
IOPIN 16 496 In
FLAG 560 368 0
FLAG 560 336 VDD
IOPIN 560 336 In
FLAG 560 272 A
IOPIN 560 272 In
FLAG 560 304 B
IOPIN 560 304 In
FLAG 832 320 A-NAND-B
IOPIN 832 320 Out
SYMBOL 2_Input_NAND_Gate_Symbol 688 320 R0
SYMATTR InstName X1
SYMBOL Voltage 16 112 R0
SYMATTR InstName V1
SYMATTR Value 1
SYMBOL Voltage 16 304 R0
SYMATTR InstName V2
SYMATTR Value PULSE(0 1 2 1n 1n 2 4)
SYMBOL Voltage 16 496 R0
SYMATTR InstName V3
SYMATTR Value PULSE(0 1 1 1n 1n 1 2)
TEXT 360 192 Left 2 !.tran 4
