Version 4
SHEET 1 1176 844
WIRE 704 -48 672 -48
WIRE 704 -16 672 -16
WIRE 864 0 832 0
WIRE 704 16 672 16
WIRE 704 48 672 48
WIRE 704 192 672 192
WIRE 704 224 672 224
WIRE 864 240 832 240
WIRE 704 256 672 256
WIRE 704 288 672 288
WIRE 704 432 672 432
WIRE 704 464 672 464
WIRE 864 480 832 480
WIRE 704 496 672 496
WIRE 704 528 672 528
WIRE 704 688 672 688
WIRE 704 720 672 720
WIRE 864 736 832 736
WIRE 704 752 672 752
WIRE 704 784 672 784
FLAG 672 -48 A1
IOPIN 672 -48 In
FLAG 672 16 VDD
IOPIN 672 16 In
FLAG 672 256 VDD
IOPIN 672 256 In
FLAG 672 496 VDD
IOPIN 672 496 In
FLAG 672 752 VDD
IOPIN 672 752 In
FLAG 672 -16 B1
IOPIN 672 -16 In
FLAG 672 192 A2
IOPIN 672 192 In
FLAG 672 224 B2
IOPIN 672 224 In
FLAG 672 432 A3
IOPIN 672 432 In
FLAG 672 464 B3
IOPIN 672 464 In
FLAG 672 688 A4
IOPIN 672 688 In
FLAG 672 720 B4
IOPIN 672 720 In
FLAG 864 0 A1-OR-B1
IOPIN 864 0 Out
FLAG 864 240 A2-OR-B2
IOPIN 864 240 Out
FLAG 864 480 A3-OR-B3
IOPIN 864 480 Out
FLAG 864 736 A4-OR-B4
IOPIN 864 736 Out
FLAG 672 48 VEE
IOPIN 672 48 In
FLAG 672 288 VEE
IOPIN 672 288 In
FLAG 672 528 VEE
IOPIN 672 528 In
FLAG 672 784 VEE
IOPIN 672 784 In
SYMBOL 2_Input_OR_Gate_Symbol 768 0 R0
SYMATTR InstName X1
SYMBOL 2_Input_OR_Gate_Symbol 768 240 R0
SYMATTR InstName X2
SYMBOL 2_Input_OR_Gate_Symbol 768 480 R0
SYMATTR InstName X3
SYMBOL 2_Input_OR_Gate_Symbol 768 736 R0
SYMATTR InstName X4
