Version 4
SHEET 1 968 680
WIRE -80 64 -80 48
WIRE -80 160 -80 144
WIRE 576 208 544 208
WIRE 576 240 544 240
WIRE -80 272 -80 256
WIRE 64 272 64 256
WIRE 208 272 208 256
WIRE 352 272 352 256
WIRE 576 272 544 272
WIRE 816 288 784 288
WIRE 576 304 544 304
WIRE 816 320 784 320
WIRE 576 336 544 336
WIRE 816 352 784 352
WIRE -80 368 -80 352
WIRE 64 368 64 352
WIRE 208 368 208 352
WIRE 352 368 352 352
WIRE 576 368 544 368
WIRE 816 384 784 384
WIRE 576 400 544 400
WIRE 576 432 544 432
WIRE 576 464 544 464
WIRE -80 496 -80 480
WIRE 64 496 64 480
WIRE 208 496 208 480
WIRE 352 496 352 480
WIRE 672 528 672 480
WIRE -80 592 -80 576
WIRE 64 592 64 576
WIRE 208 592 208 576
WIRE 352 592 352 576
FLAG 672 528 0
FLAG -80 592 0
FLAG 64 592 0
FLAG 208 592 0
FLAG 352 592 0
FLAG 352 368 0
FLAG 208 368 0
FLAG 64 368 0
FLAG -80 368 0
FLAG -80 160 0
FLAG -80 48 VDD
IOPIN -80 48 In
FLAG 544 464 VDD
IOPIN 544 464 In
FLAG 352 256 A1
IOPIN 352 256 In
FLAG 544 208 A1
IOPIN 544 208 In
FLAG 208 256 A2
IOPIN 208 256 In
FLAG 544 240 A2
IOPIN 544 240 In
FLAG 64 256 A3
IOPIN 64 256 In
FLAG 544 272 A3
IOPIN 544 272 In
FLAG -80 256 A4
IOPIN -80 256 In
FLAG 544 304 A4
IOPIN 544 304 In
FLAG 352 480 B1
IOPIN 352 480 In
FLAG 544 336 B1
IOPIN 544 336 In
FLAG 544 368 B2
IOPIN 544 368 In
FLAG 544 400 B3
IOPIN 544 400 In
FLAG 544 432 B4
IOPIN 544 432 In
FLAG 208 480 B2
IOPIN 208 480 In
FLAG 64 480 B3
IOPIN 64 480 In
FLAG -80 480 B4
IOPIN -80 480 In
FLAG 816 288 A1-OR-B1
IOPIN 816 288 Out
FLAG 816 320 A2-OR-B2
IOPIN 816 320 Out
FLAG 816 352 A3-OR-B3
IOPIN 816 352 Out
FLAG 816 384 A4-OR-B4
IOPIN 816 384 Out
SYMBOL 4_Input_OR_Symbol 672 336 R0
SYMATTR InstName X1
SYMBOL Voltage -80 48 R0
SYMATTR InstName V1
SYMATTR Value 1
SYMBOL Voltage -80 256 R0
SYMATTR InstName V2
SYMATTR Value 1
SYMBOL Voltage 64 256 R0
SYMATTR InstName V3
SYMATTR Value 0
SYMBOL Voltage 208 256 R0
SYMATTR InstName V4
SYMATTR Value 1
SYMBOL Voltage 352 256 R0
SYMATTR InstName V5
SYMATTR Value 0
SYMBOL Voltage -80 480 R0
SYMATTR InstName V6
SYMATTR Value 1
SYMBOL Voltage 64 480 R0
SYMATTR InstName V7
SYMATTR Value 1
SYMBOL Voltage 208 480 R0
SYMATTR InstName V8
SYMATTR Value 1
SYMBOL Voltage 352 480 R0
SYMATTR InstName V9
SYMATTR Value 0
TEXT 400 104 Left 2 !.tran 4
