Version 4
SHEET 1 880 680
WIRE -48 128 -48 112
WIRE 192 128 192 112
WIRE 544 192 512 192
WIRE -48 224 -48 208
WIRE 192 224 192 208
WIRE 544 224 512 224
WIRE 544 256 512 256
WIRE 544 288 512 288
WIRE 720 288 688 288
WIRE 544 320 512 320
WIRE 720 320 688 320
WIRE -96 336 -96 320
WIRE 16 336 16 320
WIRE 128 336 128 320
WIRE 240 336 240 320
WIRE 544 352 512 352
WIRE 720 352 688 352
WIRE 544 384 512 384
WIRE 720 384 688 384
WIRE 544 416 512 416
WIRE 720 416 688 416
WIRE -96 432 -96 416
WIRE 16 432 16 416
WIRE 128 432 128 416
WIRE 240 432 240 416
WIRE 544 448 512 448
WIRE 544 480 512 480
WIRE 544 512 512 512
WIRE -96 544 -96 528
WIRE 16 544 16 528
WIRE 128 544 128 528
WIRE 240 544 240 528
WIRE -96 640 -96 624
WIRE 16 640 16 624
WIRE 128 640 128 624
WIRE 240 640 240 624
FLAG 192 224 0
FLAG 192 112 CIN
IOPIN 192 112 In
FLAG 16 640 0
FLAG 128 640 0
FLAG -96 640 0
FLAG 240 640 0
FLAG 128 432 0
FLAG 16 432 0
FLAG -96 432 0
FLAG 240 432 0
FLAG -48 224 0
FLAG -48 112 VDD
IOPIN -48 112 In
FLAG 240 320 A1
IOPIN 240 320 In
FLAG 128 320 A2
IOPIN 128 320 In
FLAG 16 320 A3
IOPIN 16 320 In
FLAG -96 320 A4
IOPIN -96 320 In
FLAG 240 528 B1
IOPIN 240 528 In
FLAG 128 528 B2
IOPIN 128 528 In
FLAG 16 528 B3
IOPIN 16 528 In
FLAG -96 528 B4
IOPIN -96 528 In
FLAG 512 512 0
FLAG 512 480 VDD
IOPIN 512 480 In
FLAG 512 448 CIN
IOPIN 512 448 In
FLAG 512 416 B4
IOPIN 512 416 In
FLAG 512 384 B3
IOPIN 512 384 In
FLAG 512 352 B2
IOPIN 512 352 In
FLAG 512 320 B1
IOPIN 512 320 In
FLAG 512 288 A4
IOPIN 512 288 In
FLAG 512 256 A3
IOPIN 512 256 In
FLAG 512 224 A2
IOPIN 512 224 In
FLAG 512 192 A1
IOPIN 512 192 In
FLAG 720 288 COUT
IOPIN 720 288 Out
FLAG 720 320 S1
IOPIN 720 320 Out
FLAG 720 352 S2
IOPIN 720 352 Out
FLAG 720 384 S3
IOPIN 720 384 Out
FLAG 720 416 S4
IOPIN 720 416 Out
SYMBOL 4_Bit_Ripple_Carry_Adder_Symbol 608 352 R0
SYMATTR InstName X1
SYMBOL Voltage 192 112 R0
SYMATTR InstName V1
SYMATTR Value 1
SYMBOL Voltage -48 112 R0
SYMATTR InstName V2
SYMATTR Value 1
SYMBOL Voltage 240 320 R0
SYMATTR InstName V3
SYMATTR Value 1
SYMBOL Voltage 128 320 R0
SYMATTR InstName V4
SYMATTR Value 1
SYMBOL Voltage 16 320 R0
SYMATTR InstName V5
SYMATTR Value 1
SYMBOL Voltage -96 320 R0
SYMATTR InstName V6
SYMATTR Value 0
SYMBOL Voltage 240 528 R0
SYMATTR InstName V7
SYMATTR Value 1
SYMBOL Voltage 128 528 R0
SYMATTR InstName V8
SYMATTR Value 0
SYMBOL Voltage 16 528 R0
SYMATTR InstName V9
SYMATTR Value 1
SYMBOL Voltage -96 528 R0
SYMATTR InstName V10
SYMATTR Value 1
TEXT 320 120 Left 2 !.tran 1
