Version 4
SHEET 1 1160 1228
WIRE -832 96 -832 80
WIRE -704 96 -704 80
WIRE -576 96 -576 80
WIRE -448 96 -448 80
WIRE -320 96 -320 80
WIRE 112 112 80 112
WIRE 112 144 80 144
WIRE 112 176 80 176
WIRE -832 192 -832 176
WIRE -704 192 -704 176
WIRE -576 192 -576 176
WIRE -448 192 -448 176
WIRE -320 192 -320 176
WIRE 112 208 80 208
WIRE 112 240 80 240
WIRE 112 272 80 272
WIRE -832 304 -832 288
WIRE -704 304 -704 288
WIRE -576 304 -576 288
WIRE -448 304 -448 288
WIRE -320 304 -320 288
WIRE 112 304 80 304
WIRE 400 304 368 304
WIRE 112 336 80 336
WIRE 400 336 368 336
WIRE 112 368 80 368
WIRE 400 368 368 368
WIRE -832 400 -832 384
WIRE -704 400 -704 384
WIRE -576 400 -576 384
WIRE -448 400 -448 384
WIRE -320 400 -320 384
WIRE 112 400 80 400
WIRE 400 400 368 400
WIRE 112 432 80 432
WIRE 112 464 80 464
WIRE 112 496 80 496
WIRE -832 512 -832 496
WIRE -704 512 -704 496
WIRE -576 512 -576 496
WIRE -448 512 -448 496
WIRE -320 512 -320 496
WIRE 112 528 80 528
WIRE 112 560 80 560
WIRE 112 592 80 592
WIRE -832 608 -832 592
WIRE -704 608 -704 592
WIRE -576 608 -576 592
WIRE -448 608 -448 592
WIRE -320 608 -320 592
FLAG -320 608 0
FLAG -320 496 CIN
IOPIN -320 496 In
FLAG -704 608 0
FLAG -576 608 0
FLAG -832 608 0
FLAG -448 608 0
FLAG -576 400 0
FLAG -704 400 0
FLAG -832 400 0
FLAG -448 400 0
FLAG -832 192 0
FLAG -832 80 VDD
IOPIN -832 80 In
FLAG -448 288 A1
IOPIN -448 288 In
FLAG -576 288 A2
IOPIN -576 288 In
FLAG -704 288 A3
IOPIN -704 288 In
FLAG -832 288 A4
IOPIN -832 288 In
FLAG -448 496 B1
IOPIN -448 496 In
FLAG -576 496 B2
IOPIN -576 496 In
FLAG -704 496 B3
IOPIN -704 496 In
FLAG -832 496 B4
IOPIN -832 496 In
FLAG -320 192 0
FLAG -448 192 0
FLAG -448 80 OpSel2
IOPIN -448 80 In
FLAG -320 80 OpSel1
IOPIN -320 80 In
FLAG -576 192 0
FLAG -704 192 0
FLAG -704 80 ColSel2
IOPIN -704 80 In
FLAG -576 80 RowSel1
IOPIN -576 80 In
FLAG -320 400 0
FLAG -320 288 En
IOPIN -320 288 In
FLAG 80 592 0
FLAG 80 112 A1
IOPIN 80 112 In
FLAG 80 144 A2
IOPIN 80 144 In
FLAG 80 176 A3
IOPIN 80 176 In
FLAG 80 208 A4
IOPIN 80 208 In
FLAG 80 240 RowSel1
IOPIN 80 240 In
FLAG 80 272 ColSel2
IOPIN 80 272 In
FLAG 80 304 B1
IOPIN 80 304 In
FLAG 80 336 B2
IOPIN 80 336 In
FLAG 80 368 B3
IOPIN 80 368 In
FLAG 80 400 B4
IOPIN 80 400 In
FLAG 80 432 CIN
IOPIN 80 432 In
FLAG 80 464 EN
IOPIN 80 464 In
FLAG 80 496 OpSel1
IOPIN 80 496 In
FLAG 80 528 OpSel2
IOPIN 80 528 In
FLAG 80 560 VDD
IOPIN 80 560 In
FLAG 400 304 ALUOut1
IOPIN 400 304 Out
FLAG 400 336 ALUOut2
IOPIN 400 336 Out
FLAG 400 368 ALUOut3
IOPIN 400 368 Out
FLAG 400 400 ALUOut4
IOPIN 400 400 Out
SYMBOL Voltage -320 496 R0
SYMATTR InstName V1
SYMATTR Value 0
SYMBOL Voltage -832 80 R0
SYMATTR InstName V2
SYMATTR Value 1
SYMBOL Voltage -448 288 R0
SYMATTR InstName V3
SYMATTR Value 1
SYMBOL Voltage -576 288 R0
SYMATTR InstName V4
SYMATTR Value 1
SYMBOL Voltage -704 288 R0
SYMATTR InstName V5
SYMATTR Value 0
SYMBOL Voltage -832 288 R0
SYMATTR InstName V6
SYMATTR Value 1
SYMBOL Voltage -448 496 R0
SYMATTR InstName V7
SYMATTR Value 1
SYMBOL Voltage -576 496 R0
SYMATTR InstName V8
SYMATTR Value 0
SYMBOL Voltage -704 496 R0
SYMATTR InstName V9
SYMATTR Value 0
SYMBOL Voltage -832 496 R0
SYMATTR InstName V10
SYMATTR Value 0
SYMBOL Voltage -448 80 R0
SYMATTR InstName V11
SYMATTR Value 0
SYMBOL Voltage -320 80 R0
SYMATTR InstName V12
SYMATTR Value 1
SYMBOL Voltage -704 80 R0
SYMATTR InstName V13
SYMATTR Value 0
SYMBOL Voltage -576 80 R0
SYMATTR InstName V14
SYMATTR Value 0
SYMBOL Voltage -320 288 R0
SYMATTR InstName V15
SYMATTR Value 1
SYMBOL Overall_Device_Symbol 240 352 R0
SYMATTR InstName X1
TEXT -144 -32 Left 2 !.tran 1
