Version 4
SHEET 1 1000 704
WIRE 544 48 496 48
WIRE 544 80 496 80
WIRE 544 112 496 112
WIRE 544 144 496 144
WIRE 544 176 496 176
WIRE 544 208 496 208
WIRE 544 240 496 240
WIRE 544 272 496 272
WIRE -144 304 -144 288
WIRE -32 304 -32 288
WIRE 80 304 80 288
WIRE 544 304 496 304
WIRE 864 304 816 304
WIRE 544 336 496 336
WIRE 864 336 816 336
WIRE 544 368 496 368
WIRE 864 368 816 368
WIRE -144 400 -144 384
WIRE -32 400 -32 384
WIRE 80 400 80 384
WIRE 544 400 496 400
WIRE 864 400 816 400
WIRE 544 432 496 432
WIRE 544 464 496 464
WIRE 544 496 496 496
WIRE -144 512 -144 496
WIRE -32 512 -32 496
WIRE 80 512 80 496
WIRE 192 512 192 496
WIRE 544 528 496 528
WIRE 544 560 496 560
WIRE 544 592 496 592
WIRE -144 608 -144 592
WIRE -32 608 -32 592
WIRE 80 608 80 592
WIRE 192 608 192 592
WIRE 544 624 496 624
WIRE 544 656 496 656
FLAG 80 608 0
FLAG -32 608 0
FLAG -144 608 0
FLAG 192 608 0
FLAG -144 400 0
FLAG -144 288 VDD
IOPIN -144 288 In
FLAG 192 496 A1
IOPIN 192 496 In
FLAG 80 496 A2
IOPIN 80 496 In
FLAG -32 496 A3
IOPIN -32 496 In
FLAG -144 496 A4
IOPIN -144 496 In
FLAG 80 400 0
FLAG -32 400 0
FLAG -32 288 ALUSel2
IOPIN -32 288 In
FLAG 80 288 ALUSel1
IOPIN 80 288 In
FLAG 496 48 A1
IOPIN 496 48 In
FLAG 496 80 A2
IOPIN 496 80 In
FLAG 496 112 A3
IOPIN 496 112 In
FLAG 496 144 A4
IOPIN 496 144 In
FLAG 496 624 VDD
IOPIN 496 624 In
FLAG 496 592 ALUSel2
IOPIN 496 592 In
FLAG 496 560 ALUSel1
IOPIN 496 560 In
FLAG 496 176 0
FLAG 496 208 0
FLAG 496 240 0
FLAG 496 272 0
FLAG 496 304 0
FLAG 496 336 0
FLAG 496 368 0
FLAG 496 400 0
FLAG 496 432 0
FLAG 496 464 0
FLAG 496 496 0
FLAG 496 528 0
FLAG 496 656 0
FLAG 864 304 Output1
IOPIN 864 304 Out
FLAG 864 336 Output2
IOPIN 864 336 Out
FLAG 864 368 Output3
IOPIN 864 368 Out
FLAG 864 400 Output4
IOPIN 864 400 Out
SYMBOL 16_to_4_Multiplexer_Symbol 672 352 R0
SYMATTR InstName X1
SYMBOL Voltage -144 288 R0
SYMATTR InstName V2
SYMATTR Value 1
SYMBOL Voltage 192 496 R0
SYMATTR InstName V3
SYMATTR Value 1
SYMBOL Voltage 80 496 R0
SYMATTR InstName V4
SYMATTR Value 1
SYMBOL Voltage -32 496 R0
SYMATTR InstName V5
SYMATTR Value 1
SYMBOL Voltage -144 496 R0
SYMATTR InstName V6
SYMATTR Value 1
SYMBOL Voltage -32 288 R0
SYMATTR InstName V13
SYMATTR Value 0
SYMBOL Voltage 80 288 R0
SYMATTR InstName V14
SYMATTR Value 0
TEXT 240 176 Left 2 !.tran 1
