Version 4
SHEET 1 1052 680
WIRE -128 112 -128 96
WIRE -16 112 -16 96
WIRE 96 112 96 96
WIRE 208 112 208 96
WIRE 720 112 688 112
WIRE 720 144 688 144
WIRE 720 176 688 176
WIRE -128 208 -128 192
WIRE -16 208 -16 192
WIRE 96 208 96 192
WIRE 208 208 208 192
WIRE 720 208 688 208
WIRE 720 240 688 240
WIRE 720 272 688 272
WIRE 944 288 912 288
WIRE 720 304 688 304
WIRE -128 320 -128 304
WIRE -16 320 -16 304
WIRE 96 320 96 304
WIRE 208 320 208 304
WIRE 320 320 320 304
WIRE 432 320 432 304
WIRE 944 320 912 320
WIRE 720 336 688 336
WIRE 944 352 912 352
WIRE 720 368 688 368
WIRE 944 384 912 384
WIRE 720 400 688 400
WIRE -128 416 -128 400
WIRE -16 416 -16 400
WIRE 96 416 96 400
WIRE 208 416 208 400
WIRE 320 416 320 400
WIRE 432 416 432 400
WIRE 720 432 688 432
WIRE 720 464 688 464
WIRE 720 496 688 496
WIRE -128 528 -128 512
WIRE -16 528 -16 512
WIRE 96 528 96 512
WIRE 208 528 208 512
WIRE 720 528 688 528
WIRE 720 560 688 560
WIRE -128 624 -128 608
WIRE -16 624 -16 608
WIRE 96 624 96 608
WIRE 208 624 208 608
FLAG -16 208 0
FLAG -16 96 CIN
IOPIN -16 96 In
FLAG -16 624 0
FLAG 96 624 0
FLAG -128 624 0
FLAG 208 624 0
FLAG 96 416 0
FLAG -16 416 0
FLAG -128 416 0
FLAG 208 416 0
FLAG -128 208 0
FLAG -128 96 VDD
IOPIN -128 96 In
FLAG 208 304 A1
IOPIN 208 304 In
FLAG 96 304 A2
IOPIN 96 304 In
FLAG -16 304 A3
IOPIN -16 304 In
FLAG -128 304 A4
IOPIN -128 304 In
FLAG 208 512 B1
IOPIN 208 512 In
FLAG 96 512 B2
IOPIN 96 512 In
FLAG -16 512 B3
IOPIN -16 512 In
FLAG -128 512 B4
IOPIN -128 512 In
FLAG 208 208 0
FLAG 96 208 0
FLAG 96 96 OpSel2
IOPIN 96 96 In
FLAG 208 96 OpSel1
IOPIN 208 96 In
FLAG 688 112 A1
IOPIN 688 112 In
FLAG 688 144 A2
IOPIN 688 144 In
FLAG 688 176 A3
IOPIN 688 176 In
FLAG 688 208 A4
IOPIN 688 208 In
FLAG 688 304 B1
IOPIN 688 304 In
FLAG 688 336 B2
IOPIN 688 336 In
FLAG 688 368 B3
IOPIN 688 368 In
FLAG 688 400 B4
IOPIN 688 400 In
FLAG 688 432 CIN
IOPIN 688 432 In
FLAG 688 464 Opsel1
IOPIN 688 464 In
FLAG 688 496 OpSel2
IOPIN 688 496 In
FLAG 688 528 VDD
IOPIN 688 528 In
FLAG 688 560 0
FLAG 944 288 Out1
IOPIN 944 288 Out
FLAG 944 320 Out2
IOPIN 944 320 Out
FLAG 944 352 Out3
IOPIN 944 352 Out
FLAG 944 384 Out4
IOPIN 944 384 Out
FLAG 432 416 0
FLAG 320 416 0
FLAG 320 304 ALUEn2
IOPIN 320 304 In
FLAG 432 304 ALUEn1
IOPIN 432 304 In
FLAG 688 240 ALUEn1
IOPIN 688 240 In
FLAG 688 272 ALUEn2
IOPIN 688 272 In
SYMBOL Voltage -16 96 R0
SYMATTR InstName V1
SYMATTR Value 1
SYMBOL Voltage -128 96 R0
SYMATTR InstName V2
SYMATTR Value 1
SYMBOL Voltage 208 304 R0
SYMATTR InstName V3
SYMATTR Value 1
SYMBOL Voltage 96 304 R0
SYMATTR InstName V4
SYMATTR Value 1
SYMBOL Voltage -16 304 R0
SYMATTR InstName V5
SYMATTR Value 0
SYMBOL Voltage -128 304 R0
SYMATTR InstName V6
SYMATTR Value 1
SYMBOL Voltage 208 512 R0
SYMATTR InstName V7
SYMATTR Value 1
SYMBOL Voltage 96 512 R0
SYMATTR InstName V8
SYMATTR Value 1
SYMBOL Voltage -16 512 R0
SYMATTR InstName V9
SYMATTR Value 0
SYMBOL Voltage -128 512 R0
SYMATTR InstName V10
SYMATTR Value 0
SYMBOL Voltage 96 96 R0
SYMATTR InstName V11
SYMATTR Value 1
SYMBOL Voltage 208 96 R0
SYMATTR InstName V12
SYMATTR Value 1
SYMBOL Voltage 320 304 R0
SYMATTR InstName V13
SYMATTR Value 1
SYMBOL Voltage 432 304 R0
SYMATTR InstName V14
SYMATTR Value 1
SYMBOL 4_Bit_ALU_Symbol 816 336 R0
SYMATTR InstName X1
TEXT 416 64 Left 2 !.tran 1
