Version 4
SHEET 1 1332 1692
WIRE -1312 48 -1392 48
WIRE -1168 48 -1312 48
WIRE -656 48 -720 48
WIRE -496 48 -656 48
WIRE -1168 80 -1200 80
WIRE -880 80 -1008 80
WIRE -496 80 -528 80
WIRE -96 80 -336 80
WIRE -1168 112 -1200 112
WIRE -496 112 -528 112
WIRE -96 256 -96 80
WIRE 160 256 -96 256
WIRE -880 288 -880 80
WIRE 160 288 -880 288
WIRE 160 320 -1392 320
WIRE 592 320 288 320
WIRE 160 352 128 352
WIRE 160 384 128 384
WIRE -656 672 -656 48
WIRE 160 672 -656 672
WIRE -880 704 -880 288
WIRE 160 704 -880 704
WIRE 160 736 -1392 736
WIRE 432 736 288 736
WIRE 160 768 128 768
WIRE 160 800 128 800
WIRE 592 864 592 320
WIRE 848 864 592 864
WIRE 432 896 432 736
WIRE 848 896 432 896
WIRE 848 928 432 928
WIRE 1232 944 1184 944
WIRE 848 960 592 960
WIRE 848 992 816 992
WIRE 848 1024 816 1024
WIRE -96 1088 -96 256
WIRE 160 1088 -96 1088
WIRE -1312 1120 -1312 48
WIRE 160 1120 -1312 1120
WIRE 160 1152 -1392 1152
WIRE 432 1152 432 928
WIRE 432 1152 288 1152
WIRE 160 1184 128 1184
WIRE 160 1216 128 1216
WIRE -656 1504 -656 672
WIRE 160 1504 -656 1504
WIRE -1312 1536 -1312 1120
WIRE 160 1536 -1312 1536
WIRE 160 1568 -1392 1568
WIRE 592 1568 592 960
WIRE 592 1568 288 1568
WIRE 160 1600 128 1600
WIRE 160 1632 128 1632
FLAG -1200 80 VDD
IOPIN -1200 80 In
FLAG -528 80 VDD
IOPIN -528 80 In
FLAG 128 352 VDD
IOPIN 128 352 In
FLAG 128 768 VDD
IOPIN 128 768 In
FLAG 128 1184 VDD
IOPIN 128 1184 In
FLAG 128 1600 VDD
IOPIN 128 1600 In
FLAG 816 992 VDD
IOPIN 816 992 In
FLAG -720 48 S1
IOPIN -720 48 In
FLAG -1392 48 S2
IOPIN -1392 48 In
FLAG -1392 320 In1
IOPIN -1392 320 In
FLAG -1392 736 In2
IOPIN -1392 736 In
FLAG -1392 1152 In3
IOPIN -1392 1152 In
FLAG -1392 1568 In4
IOPIN -1392 1568 In
FLAG 1232 944 Out1
IOPIN 1232 944 Out
FLAG -1200 112 VEE
IOPIN -1200 112 In
FLAG -528 112 VEE
IOPIN -528 112 In
FLAG 128 384 VEE
IOPIN 128 384 In
FLAG 128 800 VEE
IOPIN 128 800 In
FLAG 128 1216 VEE
IOPIN 128 1216 In
FLAG 128 1632 VEE
IOPIN 128 1632 In
FLAG 816 1024 VEE
IOPIN 816 1024 In
SYMBOL 3_Input_AND_Gate_Symbol 224 320 R0
SYMATTR InstName X1
SYMBOL 4_Input_OR_Gate_Symbol 1008 944 R0
SYMATTR InstName X2
SYMBOL 3_Input_AND_Gate_Symbol 224 736 R0
SYMATTR InstName X3
SYMBOL 3_Input_AND_Gate_Symbol 224 1152 R0
SYMATTR InstName X4
SYMBOL 3_Input_AND_Gate_Symbol 224 1568 R0
SYMATTR InstName X5
SYMBOL Inverter_Gate_Symbol -1088 80 R0
SYMATTR InstName X6
SYMBOL Inverter_Gate_Symbol -416 80 R0
SYMATTR InstName X7
