Version 4
SHEET 1 1092 680
WIRE -32 80 -32 64
WIRE 336 80 336 64
WIRE -32 176 -32 160
WIRE 336 176 336 160
WIRE 816 272 784 272
WIRE 816 304 784 304
WIRE -160 320 -160 304
WIRE -32 320 -32 304
WIRE 336 320 336 304
WIRE 816 336 784 336
WIRE 816 368 784 368
WIRE 992 384 960 384
WIRE 816 400 784 400
WIRE -160 416 -160 400
WIRE -32 416 -32 400
WIRE 336 416 336 400
WIRE 816 432 784 432
WIRE 816 464 784 464
WIRE 816 496 784 496
WIRE -32 544 -32 528
WIRE 336 544 336 528
WIRE -32 640 -32 624
WIRE 336 640 336 624
FLAG 336 176 0
FLAG -32 176 0
FLAG -32 640 0
FLAG 336 640 0
FLAG -32 64 In1
IOPIN -32 64 In
FLAG 336 64 In2
IOPIN 336 64 In
FLAG -32 528 S2
IOPIN -32 528 In
FLAG 336 528 S1
IOPIN 336 528 In
FLAG -160 416 0
FLAG -160 304 VDD
IOPIN -160 304 In
FLAG 336 416 0
FLAG -32 416 0
FLAG -32 304 In3
IOPIN -32 304 In
FLAG 336 304 In4
IOPIN 336 304 In
FLAG 784 496 0
FLAG 784 464 VDD
IOPIN 784 464 In
FLAG 784 432 S2
IOPIN 784 432 In
FLAG 784 400 S1
IOPIN 784 400 In
FLAG 784 272 In1
IOPIN 784 272 In
FLAG 784 304 In2
IOPIN 784 304 In
FLAG 784 336 In3
IOPIN 784 336 In
FLAG 784 368 In4
IOPIN 784 368 In
FLAG 992 384 Out1
IOPIN 992 384 Out
SYMBOL 4_to_1_Multiplexer_Symbol 880 384 R0
SYMATTR InstName X1
SYMBOL Voltage -32 64 R0
SYMATTR InstName V1
SYMATTR Value PULSE(0 1 1 1n 1n 1 2)
SYMBOL Voltage 336 64 R0
SYMATTR InstName V2
SYMATTR Value PULSE(0 1 2 1n 1n 2 4)
SYMBOL Voltage -32 528 R0
SYMATTR InstName V3
SYMATTR Value PULSE(0 1 2 1n 1n 2 4)
SYMBOL Voltage 336 528 R0
SYMATTR InstName V4
SYMATTR Value PULSE(0 1 1 1n 1n 1 2)
SYMBOL Voltage -160 304 R0
SYMATTR InstName V5
SYMATTR Value 1
SYMBOL Voltage -32 304 R0
SYMATTR InstName V6
SYMATTR Value PULSE(0 1 4 1n 1n 4 8)
SYMBOL Voltage 336 304 R0
SYMATTR InstName V7
SYMATTR Value PULSE(0 1 8 1n 1n 8 16)
TEXT 632 72 Left 2 !.tran 16
