Version 4
SHEET 1 1312 1356
WIRE 304 64 64 64
WIRE 304 96 144 96
WIRE 608 112 512 112
WIRE 304 128 272 128
WIRE 304 160 272 160
WIRE 608 272 608 112
WIRE 608 272 128 272
WIRE 144 288 144 96
WIRE 608 288 144 288
WIRE 128 400 128 272
WIRE 304 400 128 400
WIRE 304 432 -16 432
WIRE 608 448 608 288
WIRE 608 448 512 448
WIRE 864 448 608 448
WIRE 304 464 272 464
WIRE 864 480 688 480
WIRE 304 496 272 496
WIRE 1152 496 1072 496
WIRE 1232 496 1152 496
WIRE 864 512 832 512
WIRE 864 544 832 544
WIRE 1152 656 1152 496
WIRE 1152 656 704 656
WIRE -16 672 -16 432
WIRE -16 672 -112 672
WIRE 608 672 608 448
WIRE 608 672 128 672
WIRE 688 672 688 480
WIRE 1152 672 688 672
WIRE 864 816 832 816
WIRE 336 848 304 848
WIRE 864 848 832 848
WIRE 1152 864 1152 672
WIRE 1152 864 1072 864
WIRE 1232 864 1152 864
WIRE 336 880 304 880
WIRE 704 880 704 656
WIRE 864 880 704 880
WIRE 128 912 128 672
WIRE 336 912 128 912
WIRE 608 912 512 912
WIRE 864 912 608 912
WIRE -16 944 -16 672
WIRE 336 944 -16 944
WIRE 64 976 64 64
WIRE 144 976 64 976
WIRE 336 976 144 976
WIRE 608 1056 608 912
WIRE 608 1056 128 1056
WIRE 144 1072 144 976
WIRE 608 1072 144 1072
WIRE 304 1200 272 1200
WIRE 304 1232 272 1232
WIRE 608 1248 608 1072
WIRE 608 1248 512 1248
WIRE 128 1264 128 1056
WIRE 304 1264 128 1264
WIRE 304 1296 272 1296
FLAG -112 672 CLK
IOPIN -112 672 In
FLAG 272 128 VDD
IOPIN 272 128 In
FLAG 272 160 VEE
IOPIN 272 160 In
FLAG 272 464 VDD
IOPIN 272 464 In
FLAG 272 496 VEE
IOPIN 272 496 In
FLAG 304 848 VEE
IOPIN 304 848 In
FLAG 304 880 VDD
IOPIN 304 880 In
FLAG 272 1200 VEE
IOPIN 272 1200 In
FLAG 272 1232 VDD
IOPIN 272 1232 In
FLAG 272 1296 D
IOPIN 272 1296 In
FLAG 832 816 VEE
IOPIN 832 816 In
FLAG 832 848 VDD
IOPIN 832 848 In
FLAG 832 512 VDD
IOPIN 832 512 In
FLAG 832 544 VEE
IOPIN 832 544 In
FLAG 1232 496 Q
IOPIN 1232 496 Out
FLAG 1232 864 ~Q
IOPIN 1232 864 Out
SYMBOL 2_Input_NAND_Gate_Symbol 400 112 R0
SYMATTR InstName X1
SYMBOL 2_Input_NAND_Gate_Symbol 400 448 R0
SYMATTR InstName X2
SYMBOL 2_Input_NAND_Gate_Symbol 960 496 R0
SYMATTR InstName X3
SYMBOL 2_Input_NAND_Gate_Symbol 400 1248 M180
SYMATTR InstName X4
SYMBOL 2_Input_NAND_Gate_Symbol 960 864 M180
SYMATTR InstName X6
SYMBOL 3_Input_NAND_Gate_Symbol 416 912 M180
SYMATTR InstName X7
