Version 4
SHEET 1 880 680
WIRE 96 112 96 96
WIRE 96 208 96 192
WIRE 544 272 512 272
WIRE 544 304 512 304
WIRE 688 304 656 304
WIRE 96 320 96 304
WIRE 544 336 512 336
WIRE 688 336 656 336
WIRE 544 368 512 368
WIRE 96 416 96 400
WIRE 96 496 96 480
WIRE 96 592 96 576
FLAG 96 592 0
FLAG 96 416 0
FLAG 96 208 0
FLAG 512 368 0
FLAG 96 96 VDD
IOPIN 96 96 In
FLAG 96 304 CLK
IOPIN 96 304 In
FLAG 96 480 D
IOPIN 96 480 In
FLAG 512 272 CLK
IOPIN 512 272 In
FLAG 512 304 D
IOPIN 512 304 In
FLAG 512 336 VDD
IOPIN 512 336 In
FLAG 688 304 Q
IOPIN 688 304 Out
FLAG 688 336 ~Q
IOPIN 688 336 Out
SYMBOL D_Flip_Flop_Symbol 592 320 R0
SYMATTR InstName X1
SYMBOL Voltage 96 96 R0
SYMATTR InstName V1
SYMATTR Value 5
SYMBOL Voltage 96 304 R0
SYMATTR InstName V2
SYMATTR Value PULSE(0 5 0.4 1n 1n 0.6 1)
SYMBOL Voltage 96 480 R0
SYMATTR InstName V3
SYMATTR Value PULSE(0 5 1 1n 1n 1 2)
TEXT 320 176 Left 2 !.tran 4
