Version 4
SHEET 1 2712 1180
WIRE -560 -192 -560 -208
WIRE -432 -192 -432 -208
WIRE -304 -192 -304 -208
WIRE 112 -128 80 -128
WIRE 416 -128 384 -128
WIRE 720 -128 688 -128
WIRE 1008 -128 976 -128
WIRE -560 -96 -560 -112
WIRE -432 -96 -432 -112
WIRE -304 -96 -304 -112
WIRE 112 -96 80 -96
WIRE 416 -96 384 -96
WIRE 720 -96 688 -96
WIRE 1008 -96 976 -96
WIRE 112 -64 80 -64
WIRE 272 -64 224 -64
WIRE 416 -64 384 -64
WIRE 576 -64 528 -64
WIRE 720 -64 688 -64
WIRE 864 -64 832 -64
WIRE 1008 -64 976 -64
WIRE 1216 -64 1120 -64
WIRE 112 -32 80 -32
WIRE 416 -32 384 -32
WIRE 720 -32 688 -32
WIRE 1008 -32 976 -32
WIRE -560 128 -560 112
WIRE -432 128 -432 112
WIRE -304 128 -304 112
WIRE 1712 176 1680 176
WIRE 1712 208 1680 208
WIRE -560 224 -560 208
WIRE -432 224 -432 208
WIRE -304 224 -304 208
WIRE 1712 240 1584 240
WIRE 1856 240 1824 240
WIRE 1712 272 1680 272
WIRE 1216 288 1216 -64
WIRE 1312 288 1216 288
WIRE 864 320 864 -64
WIRE 1312 320 864 320
WIRE 576 352 576 -64
WIRE 1312 352 576 352
WIRE 272 384 272 -64
WIRE 1312 384 272 384
WIRE 1712 384 1680 384
WIRE 1312 416 1280 416
WIRE 1712 416 1680 416
WIRE -560 432 -560 416
WIRE -432 432 -432 416
WIRE 1312 448 1280 448
WIRE 1712 448 1600 448
WIRE 1856 448 1824 448
WIRE 1312 480 192 480
WIRE 1584 480 1584 240
WIRE 1584 480 1568 480
WIRE 1712 480 1680 480
WIRE 1312 512 480 512
WIRE 1600 512 1600 448
WIRE 1600 512 1568 512
WIRE -560 528 -560 512
WIRE -432 528 -432 512
WIRE 1312 544 784 544
WIRE 1600 544 1568 544
WIRE 1312 576 1088 576
WIRE 1584 576 1568 576
WIRE 1712 592 1680 592
WIRE 1312 608 1280 608
WIRE 1712 624 1680 624
WIRE 1312 640 1280 640
WIRE 1600 656 1600 544
WIRE 1712 656 1600 656
WIRE 1856 656 1824 656
WIRE 1312 672 1280 672
WIRE 1712 688 1680 688
WIRE 1312 704 1280 704
WIRE -560 720 -560 704
WIRE -432 720 -432 704
WIRE -304 720 -304 704
WIRE -176 720 -176 704
WIRE 1312 736 1280 736
WIRE 1312 768 1280 768
WIRE 1712 800 1680 800
WIRE -560 816 -560 800
WIRE -432 816 -432 800
WIRE -304 816 -304 800
WIRE -176 816 -176 800
WIRE 1712 832 1680 832
WIRE 1584 864 1584 576
WIRE 1712 864 1584 864
WIRE 1856 864 1824 864
WIRE 1712 896 1680 896
WIRE 368 960 336 960
WIRE 656 960 624 960
WIRE 960 960 928 960
WIRE 1264 960 1232 960
WIRE 192 992 192 480
WIRE 224 992 192 992
WIRE 368 992 336 992
WIRE 480 992 480 512
WIRE 512 992 480 992
WIRE 656 992 624 992
WIRE 784 992 784 544
WIRE 816 992 784 992
WIRE 960 992 928 992
WIRE 1088 992 1088 576
WIRE 1120 992 1088 992
WIRE 1264 992 1232 992
WIRE -560 1008 -560 992
WIRE -432 1008 -432 992
WIRE -304 1008 -304 992
WIRE -176 1008 -176 992
WIRE 368 1024 336 1024
WIRE 656 1024 624 1024
WIRE 960 1024 928 1024
WIRE 1264 1024 1232 1024
WIRE 368 1056 336 1056
WIRE 656 1056 624 1056
WIRE 960 1056 928 1056
WIRE 1264 1056 1232 1056
WIRE -560 1104 -560 1088
WIRE -432 1104 -432 1088
WIRE -304 1104 -304 1088
WIRE -176 1104 -176 1088
FLAG -560 528 0
FLAG -560 416 CIN
IOPIN -560 416 In
FLAG -432 1104 0
FLAG -304 1104 0
FLAG -560 1104 0
FLAG -176 1104 0
FLAG -304 816 0
FLAG -432 816 0
FLAG -560 816 0
FLAG -176 816 0
FLAG -560 -96 0
FLAG -560 -208 VDD
IOPIN -560 -208 In
FLAG -176 704 A1
IOPIN -176 704 In
FLAG -304 704 A2
IOPIN -304 704 In
FLAG -432 704 A3
IOPIN -432 704 In
FLAG -560 704 A4
IOPIN -560 704 In
FLAG -176 992 B1
IOPIN -176 992 In
FLAG -304 992 B2
IOPIN -304 992 In
FLAG -432 992 B3
IOPIN -432 992 In
FLAG -560 992 B4
IOPIN -560 992 In
FLAG -304 224 0
FLAG -432 224 0
FLAG -432 112 OpSel2
IOPIN -432 112 In
FLAG -304 112 OpSel1
IOPIN -304 112 In
FLAG -304 -96 0
FLAG -432 -96 0
FLAG -432 -208 ColSel2
IOPIN -432 -208 In
FLAG -304 -208 RowSel1
IOPIN -304 -208 In
FLAG -560 224 0
FLAG -560 112 En
IOPIN -560 112 In
FLAG 1280 768 0
FLAG 976 -64 A1
IOPIN 976 -64 In
FLAG 688 -64 A2
IOPIN 688 -64 In
FLAG 384 -64 A3
IOPIN 384 -64 In
FLAG 80 -64 A4
IOPIN 80 -64 In
FLAG 1280 416 RowSel1
IOPIN 1280 416 In
FLAG 1280 448 ColSel2
IOPIN 1280 448 In
FLAG 368 992 B1
IOPIN 368 992 In
FLAG 656 992 B2
IOPIN 656 992 In
FLAG 960 992 B3
IOPIN 960 992 In
FLAG 1264 992 B4
IOPIN 1264 992 In
FLAG 1280 608 CIN
IOPIN 1280 608 In
FLAG 1280 640 EN
IOPIN 1280 640 In
FLAG 1280 672 OpSel1
IOPIN 1280 672 In
FLAG 1280 704 OpSel2
IOPIN 1280 704 In
FLAG 1280 736 VDD
IOPIN 1280 736 In
FLAG 1856 240 ALUOut1
IOPIN 1856 240 Out
FLAG 1856 448 ALUOut2
IOPIN 1856 448 Out
FLAG 1856 656 ALUOut3
IOPIN 1856 656 Out
FLAG 1856 864 ALUOut4
IOPIN 1856 864 Out
FLAG 368 1056 0
FLAG 656 1056 0
FLAG 960 1056 0
FLAG 1264 1056 0
FLAG 80 -128 0
FLAG 384 -128 0
FLAG 688 -128 0
FLAG 976 -128 0
FLAG 1680 384 0
FLAG 1680 176 0
FLAG 1680 592 0
FLAG 1680 800 0
FLAG 80 -96 VDD
IOPIN 80 -96 In
FLAG 384 -96 VDD
IOPIN 384 -96 In
FLAG 688 -96 VDD
IOPIN 688 -96 In
FLAG 976 -96 VDD
IOPIN 976 -96 In
FLAG 368 1024 VDD
IOPIN 368 1024 In
FLAG 656 1024 VDD
IOPIN 656 1024 In
FLAG 960 1024 VDD
IOPIN 960 1024 In
FLAG 1264 1024 VDD
IOPIN 1264 1024 In
FLAG 1680 416 VDD
IOPIN 1680 416 In
FLAG 1680 208 VDD
IOPIN 1680 208 In
FLAG 1680 624 VDD
IOPIN 1680 624 In
FLAG 1680 832 VDD
IOPIN 1680 832 In
FLAG -432 528 0
FLAG -432 416 CLK
IOPIN -432 416 In
FLAG 80 -32 CLK
IOPIN 80 -32 In
FLAG 384 -32 CLK
IOPIN 384 -32 In
FLAG 688 -32 CLK
IOPIN 688 -32 In
FLAG 976 -32 CLK
IOPIN 976 -32 In
FLAG 368 960 CLK
IOPIN 368 960 In
FLAG 656 960 CLK
IOPIN 656 960 In
FLAG 960 960 CLK
IOPIN 960 960 In
FLAG 1264 960 CLK
IOPIN 1264 960 In
FLAG 1680 480 CLK
IOPIN 1680 480 In
FLAG 1680 688 CLK
IOPIN 1680 688 In
FLAG 1680 896 CLK
IOPIN 1680 896 In
FLAG 1680 272 CLK
IOPIN 1680 272 In
SYMBOL Voltage -560 416 R0
SYMATTR InstName V1
SYMATTR Value 0
SYMBOL Voltage -560 -208 R0
SYMATTR InstName V2
SYMATTR Value 1
SYMBOL Voltage -176 704 R0
SYMATTR InstName V3
SYMATTR Value 1
SYMBOL Voltage -304 704 R0
SYMATTR InstName V4
SYMATTR Value 1
SYMBOL Voltage -432 704 R0
SYMATTR InstName V5
SYMATTR Value 1
SYMBOL Voltage -560 704 R0
SYMATTR InstName V6
SYMATTR Value 0
SYMBOL Voltage -176 992 R0
SYMATTR InstName V7
SYMATTR Value 1
SYMBOL Voltage -304 992 R0
SYMATTR InstName V8
SYMATTR Value 1
SYMBOL Voltage -432 992 R0
SYMATTR InstName V9
SYMATTR Value 0
SYMBOL Voltage -560 992 R0
SYMATTR InstName V10
SYMATTR Value 1
SYMBOL Voltage -432 112 R0
SYMATTR InstName V11
SYMATTR Value 1
SYMBOL Voltage -304 112 R0
SYMATTR InstName V12
SYMATTR Value 1
SYMBOL Voltage -432 -208 R0
SYMATTR InstName V13
SYMATTR Value 1
SYMBOL Voltage -304 -208 R0
SYMATTR InstName V14
SYMATTR Value 1
SYMBOL Voltage -560 112 R0
SYMATTR InstName V15
SYMATTR Value 1
SYMBOL Overall_Device_Symbol 1440 528 R0
SYMATTR InstName X1
SYMBOL Voltage -432 416 R0
SYMATTR InstName V16
SYMATTR Value PULSE(0 1 0.4 1n 1n 0.6 1)
SYMBOL D_Flip_Flop_Symbol 160 -80 M180
SYMATTR InstName X2
SYMBOL D_Flip_Flop_Symbol 464 -80 M180
SYMATTR InstName X3
SYMBOL D_Flip_Flop_Symbol 768 -80 M180
SYMATTR InstName X4
SYMBOL D_Flip_Flop_Symbol 1056 -80 M180
SYMATTR InstName X5
SYMBOL D_Flip_Flop_Symbol 288 1008 M0
SYMATTR InstName X6
SYMBOL D_Flip_Flop_Symbol 576 1008 M0
SYMATTR InstName X7
SYMBOL D_Flip_Flop_Symbol 880 1008 M0
SYMATTR InstName X8
SYMBOL D_Flip_Flop_Symbol 1184 1008 M0
SYMATTR InstName X9
SYMBOL D_Flip_Flop_Symbol 1760 224 M180
SYMATTR InstName X10
SYMBOL D_Flip_Flop_Symbol 1760 432 M180
SYMATTR InstName X11
SYMBOL D_Flip_Flop_Symbol 1760 640 M180
SYMATTR InstName X12
SYMBOL D_Flip_Flop_Symbol 1760 848 M180
SYMATTR InstName X13
TEXT -64 312 Left 2 !.tran 4
