Version 4
SHEET 1 1264 680
WIRE 240 192 224 192
WIRE 512 192 496 192
WIRE 784 192 768 192
WIRE 1056 192 1040 192
WIRE 240 224 224 224
WIRE 368 224 352 224
WIRE 512 224 496 224
WIRE 640 224 624 224
WIRE 784 224 768 224
WIRE 912 224 896 224
WIRE 1056 224 1040 224
WIRE 1184 224 1168 224
WIRE 240 256 224 256
WIRE 368 256 352 256
WIRE 512 256 496 256
WIRE 640 256 624 256
WIRE 784 256 768 256
WIRE 912 256 896 256
WIRE 1056 256 1040 256
WIRE 1184 256 1168 256
WIRE 240 288 224 288
WIRE 512 288 496 288
WIRE 784 288 768 288
WIRE 1056 288 1040 288
WIRE 368 352 368 256
WIRE 640 352 640 256
WIRE 912 352 912 256
WIRE 1184 352 1184 256
FLAG 368 224 QA
IOPIN 368 224 Out
FLAG 640 224 QB
IOPIN 640 224 Out
FLAG 912 224 QC
IOPIN 912 224 Out
FLAG 1184 224 QD
IOPIN 1184 224 Out
FLAG 496 224 QA
IOPIN 496 224 In
FLAG 768 224 QB
IOPIN 768 224 In
FLAG 1040 224 QC
IOPIN 1040 224 In
FLAG 224 256 VDD
IOPIN 224 256 In
FLAG 496 256 VDD
IOPIN 496 256 In
FLAG 768 256 VDD
IOPIN 768 256 In
FLAG 1040 256 VDD
IOPIN 1040 256 In
FLAG 1040 288 VEE
IOPIN 1040 288 In
FLAG 768 288 VEE
IOPIN 768 288 In
FLAG 496 288 VEE
IOPIN 496 288 In
FLAG 224 288 VEE
IOPIN 224 288 In
FLAG 224 224 D
IOPIN 224 224 In
FLAG 224 192 CLK
IOPIN 224 192 In
FLAG 496 192 CLK
IOPIN 496 192 In
FLAG 768 192 CLK
IOPIN 768 192 In
FLAG 1040 192 CLK
IOPIN 1040 192 In
FLAG 368 352 ~QA
IOPIN 368 352 Out
FLAG 640 352 ~QB
IOPIN 640 352 Out
FLAG 912 352 ~QC
IOPIN 912 352 Out
FLAG 1184 352 ~QD
IOPIN 1184 352 Out
SYMBOL D_Flip_Flop_Symbol 288 240 R0
SYMATTR InstName X1
SYMBOL D_Flip_Flop_Symbol 560 240 R0
SYMATTR InstName X2
SYMBOL D_Flip_Flop_Symbol 832 240 R0
SYMATTR InstName X3
SYMBOL D_Flip_Flop_Symbol 1104 240 R0
SYMATTR InstName X4
