Version 4
SHEET 1 880 680
WIRE -16 144 -16 128
WIRE -16 240 -16 224
WIRE 688 240 656 240
WIRE 688 272 656 272
WIRE 528 304 496 304
WIRE 688 304 656 304
WIRE 528 336 496 336
WIRE 688 336 656 336
WIRE -16 352 -16 336
WIRE 528 368 496 368
WIRE 688 368 656 368
WIRE 528 400 496 400
WIRE 688 400 656 400
WIRE 688 432 656 432
WIRE -16 448 -16 432
WIRE 688 464 656 464
WIRE -16 528 -16 512
WIRE -16 624 -16 608
FLAG -16 624 0
FLAG -16 448 0
FLAG -16 240 0
FLAG -16 128 VDD
IOPIN -16 128 In
FLAG -16 336 CLK
IOPIN -16 336 In
FLAG -16 512 D
IOPIN -16 512 In
FLAG 496 368 VDD
IOPIN 496 368 In
FLAG 496 304 CLK
IOPIN 496 304 In
FLAG 496 336 D
IOPIN 496 336 In
FLAG 688 240 QA
IOPIN 688 240 Out
FLAG 688 272 QB
IOPIN 688 272 Out
FLAG 688 304 QC
IOPIN 688 304 Out
FLAG 688 336 QD
IOPIN 688 336 Out
FLAG 688 368 ~QA
IOPIN 688 368 Out
FLAG 688 400 ~QB
IOPIN 688 400 Out
FLAG 688 432 ~QC
IOPIN 688 432 Out
FLAG 688 464 ~QD
IOPIN 688 464 Out
FLAG 496 400 0
SYMBOL SIPO_Symbol 592 352 R0
SYMATTR InstName X1
SYMBOL Voltage -16 128 R0
SYMATTR InstName V1
SYMATTR Value 5
SYMBOL Voltage -16 336 R0
SYMATTR InstName V2
SYMATTR Value PULSE(0 5 0.4 1n 1n 0.6 1)
SYMBOL Voltage -16 512 R0
SYMATTR InstName V3
SYMATTR Value PULSE(0 5 1 1n 1n 1 2)
TEXT 208 208 Left 2 !.tran 4
